---- qbsp / ericw-tools v0.18.1 ----
Input file: theoublietteprototype.map
Output file: theoublietteprototype.bsp

---- LoadMapFile ----
         2991 faces
          497 brushes
          131 entities
           19 unique texnames
           98 texinfo

Opened WAD: C:/QuakeDev/wads/prototype_1_2.wad
Opened WAD: C:/QuakeDev/wads/id1.wad
Processing hull 0...
---- Brush_LoadEntity ----
          482 brushes
          257 planes
---- CSGFaces ----
         2901 brushfaces
         2185 csgfaces
         1788 mergedfaces
---- SolidBSP ----
         1994 split nodes
          795 solid leafs
         1181 empty leafs
           19 water leafs
            0 detail leafs
            0 detail illusionary leafs
            0 detail fence leafs
            0 illusionary visblocker leafs
         3872 leaffaces
         3601 nodefaces
---- Portalize ----
         1200 vis leafs
         1200 vis clusters
         3143 vis portals
---- FillOutside ----
*** WARNING 10: Reached occupant at (408 40 168), no filling performed.
Leak file written to theoublietteprototype.pts
---- MakeFaceEdges ----
---- GrowRegions ----
Processing hull 1...
Processing hull 2...
*** WARNING 19: No entities in empty space -- no filling performed (hull 2)
---- WriteBSPFile ----
Wrote theoublietteprototype.bsp
          373 planes             7460
         3901 vertexes          46812
         2046 nodes             49104
           86 texinfo            3440
         3653 faces             73060
         2189 clipnodes         17512
         1249 leafs             34972
         3924 marksurfaces       7848
        14519 surfedges         58076
         9131 edges             36524
           19 textures         104200
              lightdata             0
              visdata               0
              entdata            9250

0.370 seconds elapsed
Peak memory usage: 20080892 (19.2M)
