---- qbsp / ericw-tools v0.18.1 ----
Input file: theoublietteprototype.map
Output file: theoublietteprototype.bsp

---- LoadMapFile ----
         1134 faces
          189 brushes
           19 entities
            6 unique texnames
           21 texinfo

*** WARNING 01: No valid WAD filenames in worldmodel
Processing hull 0...
---- Brush_LoadEntity ----
          188 brushes
          118 planes
---- CSGFaces ----
         1128 brushfaces
          998 csgfaces
          853 mergedfaces
---- SolidBSP ----
         1318 split nodes
          500 solid leafs
          819 empty leafs
            0 water leafs
            0 detail leafs
            0 detail illusionary leafs
            0 detail fence leafs
            0 illusionary visblocker leafs
         1999 leaffaces
         1891 nodefaces
---- Portalize ----
          819 vis leafs
          819 vis clusters
         2283 vis portals
---- FillOutside ----
          597 outleafs
---- MergeAll ----
          444 mergefaces
---- SolidBSP ----
          274 split nodes
          151 solid leafs
          124 empty leafs
            0 water leafs
            0 detail leafs
            0 detail illusionary leafs
            0 detail fence leafs
            0 illusionary visblocker leafs
          637 leaffaces
          464 nodefaces
---- Portalize ----
          124 vis leafs
          124 vis clusters
          296 vis portals
---- Tjunc ----
          556 world edges
         1809 edge points
          430 edges added by tjunctions
            0 faces added by tjunctions
---- MakeFaceEdges ----
---- GrowRegions ----
Processing hull 1...
Processing hull 2...
*** WARNING 16: Texture 128_grey_2 not found
*** WARNING 16: Texture 128_gold_2 not found
*** WARNING 16: Texture 128_blue_1 not found
*** WARNING 16: Texture 128_grey_3 not found
*** WARNING 16: Texture 128_brown_1 not found
*** WARNING 16: Texture 128_blue_3 not found
---- WriteBSPFile ----
Wrote theoublietteprototype.bsp
          133 planes             2660
          681 vertexes           8172
          280 nodes              6720
           15 texinfo             600
          470 faces              9400
          548 clipnodes          4384
          131 leafs              3668
          643 marksurfaces       1286
         2310 surfedges          9240
         1156 edges              4624
            6 textures             28
              lightdata             0
              visdata               0
              entdata            1050

0.210 seconds elapsed
Peak memory usage: 8630538 (8.2M)
