---- qbsp / ericw-tools v0.18.1 ----
Input file: theoublietteprototype.map
Output file: theoublietteprototype.bsp

---- LoadMapFile ----
         1458 faces
          243 brushes
           18 entities
            6 unique texnames
           21 texinfo

Opened WAD: C:/QuakeDev/wads/prototype_1_2.wad
Processing hull 0...
---- Brush_LoadEntity ----
          229 brushes
          158 planes
---- CSGFaces ----
         1374 brushfaces
         1301 csgfaces
         1116 mergedfaces
---- SolidBSP ----
         1741 split nodes
          704 solid leafs
         1038 empty leafs
            0 water leafs
            0 detail leafs
            0 detail illusionary leafs
            0 detail fence leafs
            0 illusionary visblocker leafs
         2766 leaffaces
         2607 nodefaces
---- Portalize ----
         1038 vis leafs
         1038 vis clusters
         2733 vis portals
---- FillOutside ----
*** WARNING 10: Reached occupant at (592 80 224), no filling performed.
Leak file written to theoublietteprototype.pts
---- MakeFaceEdges ----
---- GrowRegions ----
Processing hull 1...
Processing hull 2...
*** WARNING 19: No entities in empty space -- no filling performed (hull 2)
---- WriteBSPFile ----
Wrote theoublietteprototype.bsp
          225 planes             4500
         2931 vertexes          35172
         1793 nodes             43032
           21 texinfo             840
         2659 faces             53180
         2126 clipnodes         17008
         1087 leafs             30436
         2818 marksurfaces       5636
        10636 surfedges         42544
         6823 edges             27292
            6 textures         130828
              lightdata             0
              visdata               0
              entdata            1104

0.269 seconds elapsed
Peak memory usage: 15112392 (14.4M)
