---- qbsp / ericw-tools v0.18.1 ----
Input file: theoublietteprototype.map
Output file: theoublietteprototype.bsp

---- LoadMapFile ----
         1611 faces
          266 brushes
           19 entities
            8 unique texnames
           46 texinfo

Opened WAD: C:/QuakeDev/wads/prototype_1_2.wad
Processing hull 0...
---- Brush_LoadEntity ----
          252 brushes
          233 planes
---- CSGFaces ----
         1527 brushfaces
         1463 csgfaces
         1248 mergedfaces
---- SolidBSP ----
         1915 split nodes
          765 solid leafs
         1150 empty leafs
            1 water leafs
            0 detail leafs
            0 detail illusionary leafs
            0 detail fence leafs
            0 illusionary visblocker leafs
         3008 leaffaces
         2805 nodefaces
---- Portalize ----
         1151 vis leafs
         1151 vis clusters
         3075 vis portals
---- FillOutside ----
*** WARNING 10: Reached occupant at (128 0 248), no filling performed.
Leak file written to theoublietteprototype.pts
---- MakeFaceEdges ----
---- GrowRegions ----
Processing hull 1...
*** WARNING 19: No entities in empty space -- no filling performed (hull 1)
Processing hull 2...
*** WARNING 19: No entities in empty space -- no filling performed (hull 2)
---- WriteBSPFile ----
Wrote theoublietteprototype.bsp
          359 planes             7180
         3140 vertexes          37680
         1967 nodes             47208
           44 texinfo            1760
         2857 faces             57140
         3684 clipnodes         29472
         1200 leafs             33600
         3060 marksurfaces       6120
        11333 surfedges         45332
         7306 edges             29224
            8 textures         141796
              lightdata             0
              visdata               0
              entdata            1238

0.270 seconds elapsed
Peak memory usage: 16250040 (15.5M)
