---- qbsp / ericw-tools v0.18.1 ----
Input file: theoublietteprototype.map
Output file: theoublietteprototype.bsp

---- LoadMapFile ----
*** WARNING 06: No info_player_deathmatch entities in level
          366 faces
           61 brushes
            2 entities
            4 unique texnames
           15 texinfo

*** WARNING 01: No valid WAD filenames in worldmodel
Processing hull 0...
---- Brush_LoadEntity ----
           61 brushes
           48 planes
---- CSGFaces ----
          366 brushfaces
          292 csgfaces
          244 mergedfaces
---- SolidBSP ----
          290 split nodes
           97 solid leafs
          194 empty leafs
            0 water leafs
            0 detail leafs
            0 detail illusionary leafs
            0 detail fence leafs
            0 illusionary visblocker leafs
          460 leaffaces
          439 nodefaces
---- Portalize ----
          194 vis leafs
          194 vis clusters
          474 vis portals
---- FillOutside ----
          166 outleafs
---- MergeAll ----
           82 mergefaces
---- SolidBSP ----
           53 split nodes
           37 solid leafs
           17 empty leafs
            0 water leafs
            0 detail leafs
            0 detail illusionary leafs
            0 detail fence leafs
            0 illusionary visblocker leafs
          112 leaffaces
           90 nodefaces
---- Portalize ----
           17 vis leafs
           17 vis clusters
           28 vis portals
---- Tjunc ----
          118 world edges
          352 edge points
           82 edges added by tjunctions
            0 faces added by tjunctions
---- MakeFaceEdges ----
---- GrowRegions ----
Processing hull 1...
*** WARNING 19: No entities in empty space -- no filling performed (hull 1)
Processing hull 2...
*** WARNING 19: No entities in empty space -- no filling performed (hull 2)
*** WARNING 16: Texture 128_grey_2 not found
*** WARNING 16: Texture 128_gold_2 not found
*** WARNING 16: Texture 128_blue_1 not found
*** WARNING 16: Texture 128_grey_3 not found
---- WriteBSPFile ----
Wrote theoublietteprototype.bsp
          106 planes             2120
          133 vertexes           1596
           53 nodes              1272
            8 texinfo             320
           90 faces              1800
          867 clipnodes          6936
           18 leafs               504
          112 marksurfaces        224
          442 surfedges          1768
          222 edges               888
            4 textures             20
              lightdata             0
              visdata               0
              entdata             116

0.145 seconds elapsed
Peak memory usage: 2710620 (2.6M)
