---- qbsp / ericw-tools v0.18.1 ----
Input file: theoublietteprototype.map
Output file: theoublietteprototype.bsp

---- LoadMapFile ----
         1743 faces
          288 brushes
           28 entities
           10 unique texnames
           52 texinfo

Opened WAD: C:/QuakeDev/wads/prototype_1_2.wad
Processing hull 0...
---- Brush_LoadEntity ----
          273 brushes
          246 planes
---- CSGFaces ----
         1653 brushfaces
         1579 csgfaces
         1345 mergedfaces
---- SolidBSP ----
         1964 split nodes
          771 solid leafs
         1174 empty leafs
           20 water leafs
            0 detail leafs
            0 detail illusionary leafs
            0 detail fence leafs
            0 illusionary visblocker leafs
         3175 leaffaces
         2952 nodefaces
---- Portalize ----
         1194 vis leafs
         1194 vis clusters
         3167 vis portals
---- FillOutside ----
*** WARNING 10: Reached occupant at (128 0 248), no filling performed.
Leak file written to theoublietteprototype.pts
---- MakeFaceEdges ----
---- GrowRegions ----
Processing hull 1...
*** WARNING 19: No entities in empty space -- no filling performed (hull 1)
Processing hull 2...
*** WARNING 19: No entities in empty space -- no filling performed (hull 2)
---- WriteBSPFile ----
Wrote theoublietteprototype.bsp
          373 planes             7460
         3254 vertexes          39048
         2016 nodes             48384
           45 texinfo            1800
         3004 faces             60080
         3640 clipnodes         29120
         1243 leafs             34804
         3227 marksurfaces       6454
        11927 surfedges         47708
         7703 edges             30812
           10 textures         152764
              lightdata             0
              visdata               0
              entdata            1713

0.298 seconds elapsed
Peak memory usage: 16583890 (15.8M)
