---- qbsp / ericw-tools v0.18.1 ----
Input file: theoublietteprototype.map
Output file: theoublietteprototype.bsp

---- LoadMapFile ----
         1134 faces
          189 brushes
           13 entities
            6 unique texnames
           21 texinfo

Opened WAD: C:/QuakeDev/wads/prototype_1_2.wad
Processing hull 0...
---- Brush_LoadEntity ----
          188 brushes
          118 planes
---- CSGFaces ----
         1128 brushfaces
         1006 csgfaces
          866 mergedfaces
---- SolidBSP ----
         1323 split nodes
          499 solid leafs
          825 empty leafs
            0 water leafs
            0 detail leafs
            0 detail illusionary leafs
            0 detail fence leafs
            0 illusionary visblocker leafs
         2023 leaffaces
         1912 nodefaces
---- Portalize ----
          825 vis leafs
          825 vis clusters
         2283 vis portals
---- FillOutside ----
          598 outleafs
---- MergeAll ----
          459 mergefaces
---- SolidBSP ----
          284 split nodes
          152 solid leafs
          133 empty leafs
            0 water leafs
            0 detail leafs
            0 detail illusionary leafs
            0 detail fence leafs
            0 illusionary visblocker leafs
          661 leaffaces
          478 nodefaces
---- Portalize ----
          133 vis leafs
          133 vis clusters
          317 vis portals
---- Tjunc ----
          557 world edges
         1851 edge points
          434 edges added by tjunctions
            0 faces added by tjunctions
---- MakeFaceEdges ----
---- GrowRegions ----
Processing hull 1...
*** WARNING 19: No entities in empty space -- no filling performed (hull 1)
Processing hull 2...
*** WARNING 19: No entities in empty space -- no filling performed (hull 2)
---- WriteBSPFile ----
Wrote theoublietteprototype.bsp
          168 planes             3360
          695 vertexes           8340
          290 nodes              6960
           15 texinfo             600
          484 faces              9680
         2543 clipnodes         20344
          140 leafs              3920
          667 marksurfaces       1334
         2370 surfedges          9480
         1186 edges              4744
            6 textures         130828
              lightdata             0
              visdata               0
              entdata             815

0.249 seconds elapsed
Peak memory usage: 8611510 (8.2M)
