---- qbsp / ericw-tools v0.18.1 ----
Input file: theoublietteprototype.map
Output file: theoublietteprototype.bsp

---- LoadMapFile ----
         1611 faces
          266 brushes
           19 entities
            8 unique texnames
           46 texinfo

Opened WAD: C:/QuakeDev/wads/prototype_1_2.wad
Processing hull 0...
---- Brush_LoadEntity ----
            0 brushes
            0 planes
---- CSGFaces ----
            0 brushfaces
            0 csgfaces
            0 mergedfaces
---- Portalize ----
