---- qbsp / ericw-tools v0.18.1 ----
Input file: theoublietteprototype.map
Output file: theoublietteprototype.bsp

---- LoadMapFile ----
*** WARNING 06: No info_player_deathmatch entities in level
          366 faces
           61 brushes
            2 entities
            4 unique texnames
           15 texinfo

*** WARNING 01: No valid WAD filenames in worldmodel
Processing hull 0...
---- Brush_LoadEntity ----
           61 brushes
           50 planes
---- CSGFaces ----
          366 brushfaces
          290 csgfaces
          242 mergedfaces
---- SolidBSP ----
          293 split nodes
           98 solid leafs
          196 empty leafs
            0 water leafs
            0 detail leafs
            0 detail illusionary leafs
            0 detail fence leafs
            0 illusionary visblocker leafs
          461 leaffaces
          440 nodefaces
---- Portalize ----
          196 vis leafs
          196 vis clusters
          482 vis portals
---- FillOutside ----
          166 outleafs
---- MergeAll ----
           79 mergefaces
---- SolidBSP ----
           55 split nodes
           37 solid leafs
           19 empty leafs
            0 water leafs
            0 detail leafs
            0 detail illusionary leafs
            0 detail fence leafs
            0 illusionary visblocker leafs
          115 leaffaces
           87 nodefaces
---- Portalize ----
           19 vis leafs
           19 vis clusters
           36 vis portals
---- Tjunc ----
          119 world edges
          340 edge points
           72 edges added by tjunctions
            0 faces added by tjunctions
---- MakeFaceEdges ----
---- GrowRegions ----
Processing hull 1...
*** WARNING 19: No entities in empty space -- no filling performed (hull 1)
Processing hull 2...
*** WARNING 19: No entities in empty space -- no filling performed (hull 2)
*** WARNING 16: Texture 128_grey_2 not found
*** WARNING 16: Texture 128_gold_2 not found
*** WARNING 16: Texture 128_blue_1 not found
*** WARNING 16: Texture 128_grey_3 not found
---- WriteBSPFile ----
Wrote theoublietteprototype.bsp
          107 planes             2140
          127 vertexes           1524
           55 nodes              1320
            8 texinfo             320
           87 faces              1740
          862 clipnodes          6896
           20 leafs               560
          115 marksurfaces        230
          420 surfedges          1680
          211 edges               844
            4 textures             20
              lightdata             0
              visdata               0
              entdata             116

0.149 seconds elapsed
Peak memory usage: 2686794 (2.6M)
