---- qbsp / ericw-tools v0.18.1 ----
Input file: theoublietteprototype.map
Output file: theoublietteprototype.bsp

---- LoadMapFile ----
         1122 faces
          187 brushes
           11 entities
            6 unique texnames
           21 texinfo

Opened WAD: C:/QuakeDev/wads/prototype_1_2.wad
Processing hull 0...
---- Brush_LoadEntity ----
          186 brushes
          118 planes
---- CSGFaces ----
         1116 brushfaces
          993 csgfaces
          853 mergedfaces
---- SolidBSP ----
         1318 split nodes
          500 solid leafs
          819 empty leafs
            0 water leafs
            0 detail leafs
            0 detail illusionary leafs
            0 detail fence leafs
            0 illusionary visblocker leafs
         2006 leaffaces
         1898 nodefaces
---- Portalize ----
          819 vis leafs
          819 vis clusters
         2283 vis portals
---- FillOutside ----
          597 outleafs
---- MergeAll ----
          444 mergefaces
---- SolidBSP ----
          274 split nodes
          151 solid leafs
          124 empty leafs
            0 water leafs
            0 detail leafs
            0 detail illusionary leafs
            0 detail fence leafs
            0 illusionary visblocker leafs
          637 leaffaces
          464 nodefaces
---- Portalize ----
          124 vis leafs
          124 vis clusters
          296 vis portals
---- Tjunc ----
          556 world edges
         1809 edge points
          430 edges added by tjunctions
            0 faces added by tjunctions
---- MakeFaceEdges ----
---- GrowRegions ----
Processing hull 1...
*** WARNING 19: No entities in empty space -- no filling performed (hull 1)
Processing hull 2...
*** WARNING 19: No entities in empty space -- no filling performed (hull 2)
---- WriteBSPFile ----
Wrote theoublietteprototype.bsp
          168 planes             3360
          681 vertexes           8172
          280 nodes              6720
           15 texinfo             600
          470 faces              9400
         2592 clipnodes         20736
          131 leafs              3668
          643 marksurfaces       1286
         2310 surfedges          9240
         1156 edges              4624
            6 textures         130828
              lightdata             0
              visdata               0
              entdata             691

0.220 seconds elapsed
Peak memory usage: 8639958 (8.2M)
