---- qbsp / ericw-tools v0.18.1 ----
Input file: theoublietteprototype.map
Output file: theoublietteprototype.bsp

---- LoadMapFile ----
         1398 faces
          233 brushes
           13 entities
            6 unique texnames
           21 texinfo

Opened WAD: C:/QuakeDev/wads/prototype_1_2.wad
Processing hull 0...
---- Brush_LoadEntity ----
          232 brushes
          188 planes
---- CSGFaces ----
         1392 brushfaces
         1362 csgfaces
         1206 mergedfaces
---- SolidBSP ----
         1906 split nodes
          711 solid leafs
         1196 empty leafs
            0 water leafs
            0 detail leafs
            0 detail illusionary leafs
            0 detail fence leafs
            0 illusionary visblocker leafs
         2812 leaffaces
         2646 nodefaces
---- Portalize ----
         1196 vis leafs
         1196 vis clusters
         3215 vis portals
---- FillOutside ----
          966 outleafs
---- MergeAll ----
          473 mergefaces
---- SolidBSP ----
          277 split nodes
          138 solid leafs
          140 empty leafs
            0 water leafs
            0 detail leafs
            0 detail illusionary leafs
            0 detail fence leafs
            0 illusionary visblocker leafs
          739 leaffaces
          554 nodefaces
---- Portalize ----
          140 vis leafs
          140 vis clusters
          376 vis portals
---- Tjunc ----
          610 world edges
         2096 edge points
          516 edges added by tjunctions
            0 faces added by tjunctions
---- MakeFaceEdges ----
---- GrowRegions ----
Processing hull 1...
Processing hull 2...
*** WARNING 19: No entities in empty space -- no filling performed (hull 2)
---- WriteBSPFile ----
Wrote theoublietteprototype.bsp
          242 planes             4840
          807 vertexes           9684
          283 nodes              6792
           13 texinfo             520
          560 faces             11200
         2019 clipnodes         16152
          147 leafs              4116
          745 marksurfaces       1490
         2756 surfedges         11024
         1379 edges              5516
            6 textures         130828
              lightdata             0
              visdata               0
              entdata             830

0.278 seconds elapsed
Peak memory usage: 11397770 (10.9M)
